%%%%%%%%%%%%%%%%%%%%%%%%%%%%%%%%%%%%%%%%%%%%%%%%%%%%%%%%%%%%%%%%%%%%%%%%%%%%%%%%
%                                                                              %
% SU2 configuration file                                                       %
% Case description: Test custom inlets via Python wrapper.                     %
% Author: P. Gomes                                                             %
% Date: 2nd Jun 2024                                                           %
%                                                                              %
%%%%%%%%%%%%%%%%%%%%%%%%%%%%%%%%%%%%%%%%%%%%%%%%%%%%%%%%%%%%%%%%%%%%%%%%%%%%%%%%
%
SOLVER= INC_NAVIER_STOKES
KIND_TURB_MODEL= NONE
%MATH_PROBLEM= DISCRETE_ADJOINT
RESTART_SOL= NO
%
TIME_DOMAIN= YES
TIME_STEP= 0.0025
TIME_MARCHING= DUAL_TIME_STEPPING-2ND_ORDER
%
HISTORY_OUTPUT = ITER, RMS_RES, DRAG, TAVG_AERO_COEFF
SCREEN_OUTPUT= TIME_ITER, INNER_ITER, RMS_RES, LINSOL_RESIDUAL, FORCE_X, SURFACE_MASSFLOW, TAVG_DRAG

% ----------------- INCOMPRESSIBLE FLOW CONDITION DEFINITION ------------------%
%
INC_DENSITY_MODEL= CONSTANT
INC_ENERGY_EQUATION = YES
INC_DENSITY_INIT= 1.225
INC_VELOCITY_INIT= ( 1.0, 0.0, 0.0 )
INC_TEMPERATURE_INIT= 300.0
INC_NONDIM = DIMENSIONAL

% ---------------------- REFERENCE VALUE DEFINITION ---------------------------%
%
REF_ORIGIN_MOMENT_X = 0.00
REF_ORIGIN_MOMENT_Y = 0.00
REF_ORIGIN_MOMENT_Z = 0.00
REF_LENGTH= 0.02
REF_AREA= 0.02
%
FLUID_MODEL= INC_IDEAL_GAS
SPECIFIC_HEAT_CP= 1004.703
MOLECULAR_WEIGHT= 28.96
VISCOSITY_MODEL= CONSTANT_VISCOSITY
MU_CONSTANT= 0.001
OBJECTIVE_FUNCTION= DRAG

% -------------------- BOUNDARY CONDITION DEFINITION --------------------------%
%
MARKER_HEATFLUX= ( y_minus, 0.0 )
MARKER_SYM= ( y_plus )
%
INC_INLET_TYPE= VELOCITY_INLET
INC_OUTLET_TYPE= PRESSURE_OUTLET
INLET_SINE_AMPLITUDE= 0.2
INLET_SINE_FREQUENCY= 20.0
INLET_SINE_PHASE= 0.0
MARKER_INLET= ( x_minus, 300.0, 1.0, 1.0, 0.0, 0.0 )
MARKER_OUTLET= ( x_plus, 0.0 )
%
MARKER_PLOTTING= ( y_minus )
MARKER_MONITORING= ( y_minus )
MARKER_ANALYZE= ( x_minus, x_plus )

% ------------- COMMON PARAMETERS DEFINING THE NUMERICAL METHOD ---------------%
%
NUM_METHOD_GRAD= GREEN_GAUSS
CFL_NUMBER= 50
CFL_ADAPT= NO
TIME_DISCRE_FLOW= EULER_IMPLICIT
%
MGLEVEL= 2
MGCYCLE= V_CYCLE
MG_PRE_SMOOTH= ( 1, 1, 1 )
MG_POST_SMOOTH= ( 0, 0, 0 )
MG_DAMP_RESTRICTION= 0.5
MG_DAMP_PROLONGATION= 0.5

% ------------------------ LINEAR SOLVER DEFINITION ---------------------------%
%
LINEAR_SOLVER= FGMRES
LINEAR_SOLVER_PREC= ILU
LINEAR_SOLVER_ERROR= 0.2
LINEAR_SOLVER_ITER= 5

% -------------------- FLOW NUMERICAL METHOD DEFINITION -----------------------%
%
CONV_NUM_METHOD_FLOW= FDS
MUSCL_FLOW= YES
SLOPE_LIMITER_FLOW= NONE
JST_SENSOR_COEFF= ( 0.5, 0.04 )

% --------------------------- CONVERGENCE PARAMETERS --------------------------%
%
INNER_ITER= 100000
CONV_RESIDUAL_MINVAL= -12
CONV_FIELD= RMS_PRESSURE, RMS_ADJ_PRESSURE
CONV_STARTITER= 0
TIME_ITER= 40
UNST_ADJOINT_ITER= 40
WINDOW_START_ITER= 20
WINDOW_FUNCTION= SQUARE
ITER_AVERAGE_OBJ= 20
% Temporal operator for the unsteady objective (AVERAGE, DFT_AMPLITUDE)
OBJECTIVE_TEMPORAL_MODE = DFT_AMPLITUDE
OBJECTIVE_DFT_HARMONIC = 1

% -------------------- FREE-FORM DEFORMATION PARAMETERS -----------------------%
%
% Tolerance of the Free-Form Deformation point inversion
FFD_TOLERANCE= 1E-10
%
% Maximum number of iterations in the Free-Form Deformation point inversion
FFD_ITERATIONS= 500
%
% FFD box definition: 3D case (FFD_BoxTag, X1, Y1, Z1, X2, Y2, Z2, X3, Y3, Z3, X4, Y4, Z4,
%                              X5, Y5, Z5, X6, Y6, Z6, X7, Y7, Z7, X8, Y8, Z8)
%                     2D case (FFD_BoxTag, X1, Y1, 0.0, X2, Y2, 0.0, X3, Y3, 0.0, X4, Y4, 0.0,
%                              0.0, 0.0, 0.0, 0.0, 0.0, 0.0, 0.0, 0.0, 0.0, 0.0, 0.0, 0.0)
% Start at the lowest leftest corner and turn counter-clockwise

FFD_DEFINITION= (BOX, \
 0.005, -0.0018, 0.0, \
 0.05, -0.0018, 0.0, \
 0.05, 0.0035, 0.0, \
 0.005, 0.0035, 0.0, \
 0.0, 0.0 ,0.0, \
 0.0 ,0.0, 0.0, \
 0.0, 0.0, 0.0, \
 0.0, 0.0, 0.0 )
%
% FFD box degree: 3D case (i_degree, j_degree, k_degree)
%                 2D case (i_degree, j_degree, 0)
FFD_DEGREE= (6, 1, 0)
%
% Surface grid continuity at the intersection with the faces of the FFD boxes.
% To keep a particular level of surface continuity, SU2 automatically freezes the right
% number of control point planes (NO_DERIVATIVE, 1ST_DERIVATIVE, 2ND_DERIVATIVE, USER_INPUT)
FFD_CONTINUITY= USER_INPUT
%
% Definition of the FFD planes to be frozen in the FFD (x,y,z).
% Value from 0 FFD degree in that direction. Pick a value larger than degree if you dont want to fix any plane.
% FFD_FIX_I= (0,2,3)
% FFD_FIX_J= (0,2,3)
% FFD_FIX_K= (0,2,3)

% ----------------------- DESIGN VARIABLE PARAMETERS --------------------------%
%
DV_KIND= FFD_CONTROL_POINT_2D, FFD_CONTROL_POINT_2D, FFD_CONTROL_POINT_2D, FFD_CONTROL_POINT_2D, FFD_CONTROL_POINT_2D, FFD_CONTROL_POINT_2D, FFD_CONTROL_POINT_2D, FFD_CONTROL_POINT_2D, FFD_CONTROL_POINT_2D, FFD_CONTROL_POINT_2D
%DV_KIND= FFD_SETTING
%
% Marker of the surface in which we are going apply the shape deformation
% NOTE: for deformation the outlet should be a MARKER_SYM to hinder the mesh being ripped apart.
DV_MARKER= ( y_minus )
%
% Parameters of the shape deformation
% - FFD_SETTING ( 1.0 )
% - FFD_CONTROL_POINT_2D ( FFD_BoxTag, i_Ind, j_Ind, x_Disp, y_Disp )
DV_PARAM= (BOX, 2, 0, 0.0, 1.0); (BOX, 3, 0, 0.0, 1.0); (BOX, 4, 0, 0.0, 1.0); (BOX, 5, 0, 0.0, 1.0); (BOX, 6, 0, 0.0, 1.0);  (BOX, 2, 1, 0.0, 1.0); (BOX, 3, 1, 0.0, 1.0); (BOX, 4, 1, 0.0, 1.0); (BOX, 5, 1, 0.0, 1.0); (BOX, 6, 1, 0.0, 1.0)
%DV_PARAM= ( 1.0 )
% Excluded FFD points that are fixed to keep a nice geometry
%DV_PARAM= (BOX, 0, 0, 0.0, 1.0); (BOX, 1, 0, 0.0, 1.0); (BOX, 0, 1, 0.0, 1.0); (BOX, 1, 1, 0.0, 1.0);
%
% Value of the shape deformation
% first row:  lower row y-direction
% second row: upper row y-direction
DV_VALUE= 0.000000, 0.000000, 0.000000, 0.000000, 0.000000, 0.000000, 0.000000, 0.000000, 0.000000, 0.000010

% Writing frequency for screen output
SCREEN_WRT_FREQ_INNER= 100
%
SCREEN_WRT_FREQ_OUTER= 100
%
SCREEN_WRT_FREQ_TIME= 1

% Restart flow input file
SOLUTION_FILENAME= restart
%
% Restart adjoint input file
SOLUTION_ADJ_FILENAME= restart_adj
% Output file for the DFT amplitude diagnostic
OBJECTIVE_DFT_OUTPUT = dft_amplitude.dat
OUTPUT_FILES= (RESTART, PARAVIEW)
VALUE_OBJFUNC_FILENAME= of_func
%MESH_FORMAT= RECTANGLE
%MESH_BOX_LENGTH= (0.1, 0.01, 0)
%MESH_BOX_SIZE= (65, 17, 0)
MESH_FILENAME= mesh_out.su2
MESH_OUT_FILENAME = mesh_out.su2
